/*--------------------------------*- C++ -*----------------------------------*\
| =========                 |                                                 |
| \\      /  F ield         | OpenFOAM: The Open Source CFD Toolbox           |
|  \\    /   O peration     | Version:  v1912                                 |
|   \\  /    A nd           | Website:  www.openfoam.com                      |
|    \\/     M anipulation  |                                                 |
\*---------------------------------------------------------------------------*/
FoamFile
{
    version     2.0;
    format      ascii;
    class       dictionary;
    location    "system";
    object      controlDict;
}
// * * * * * * * * * * * * * * * * * * * * * * * * * * * * * * * * * * * * * //

application     simpleFoam;

startFrom       startTime;

startTime       0;

stopAt          endTime;

endTime         5000;

deltaT          1;

writeControl    timeStep;

writeInterval   1000;

purgeWrite      0;

writeFormat     ascii;

writePrecision  8;

writeCompression off;

timeFormat      general;

timePrecision   8;

runTimeModifiable true;

functions
{
    #includeFunc wallShearStress
    
    yLine
    {
    type            sets;
    libs            ("libsampling.so");
    interpolationScheme cellPoint;
    setFormat       raw;
    writeControl    timeStep;
    writeInterval   1000;
	sets
	(
    	data
    	{
    	    type    midPointAndFace;
    	    axis    y;
    	    start   ( 0.97 0.0 0.0 );
    	    end     ( 0.97 0.015 0.0 );
    	    // nPoints 10001;
    	}
	);
	fields          (U p wallShearStress);
    }
}

// ************************************************************************* //
