/*--------------------------------*- C++ -*----------------------------------*\
| =========                 |                                                 |
| \\      /  F ield         | OpenFOAM: The Open Source CFD Toolbox           |
|  \\    /   O peration     | Version:  v1912                                 |
|   \\  /    A nd           | Website:  www.openfoam.com                      |
|    \\/     M anipulation  |                                                 |
\*---------------------------------------------------------------------------*/
FoamFile
{
    version     2.0;
    format      ascii;
    class       dictionary;
    location    "system";
    object      fvSolution;
}
// * * * * * * * * * * * * * * * * * * * * * * * * * * * * * * * * * * * * * //

solvers
{
    p
    {
        solver          GAMG;
        smoother        GaussSeidel;
        tolerance       1e-8;
        relTol          0.01;
    }

    "(U|k|omega|e)"
    {
        solver          PBiCGStab;
        preconditioner  DILU;
        tolerance       1e-8;
        relTol          0.1;
    }
}

SIMPLE
{
    residualControl
    {
        p               1e-6;
        U               1e-6;
        "(k|epsilon|omega)" 1e-6;
    }

    nNonOrthogonalCorrectors 0;
    pMinFactor          0.1;
    pMaxFactor          2;
    // consistent          yes;
}

relaxationFactors
{
    fields
    {
        p               0.7;
        rho             0.01;
    }
    equations
    {
        U               0.9;
        k               0.8;
        omega           0.8;
        e               0.7;
    }
}


// cache
// {
//     grad(U);
// }
// 
// ************************************************************************* //
